output/Combined/Currents.csv
Element, I1_1, Ang1_1, I1_2, Ang1_2, I1_3, Ang1_3, I1_4, Ang1_4, Iresid1, AngResid1, I2_1, Ang2_1, I2_2, Ang2_2, I2_3, Ang2_3, I2_4, Ang2_4, Iresid2, AngResid2
Vsource.SOURCE,    122.275,   153.76,    122.275,    33.76,    122.275,   -86.24,          0,     0.00, 1.72892E-9,    53.90,    122.275,   -26.24,    122.275,  -146.24,    122.275,    93.76,          0,     0.00, 1.72892E-9,  -126.10
Vsource.COLONYSS,    201.053,   148.09,    201.053,    28.09,    201.053,   -91.91,          0,     0.00, 4.17265E-8,  -144.83,    201.053,   -31.91,    201.053,  -151.91,    201.053,    88.09,          0,     0.00, 4.17265E-8,    35.17
Vsource.CONTROLROOMSS,    124.918,   161.24,    124.918,    41.24,    124.918,   -78.76,          0,     0.00, 2.11423E-8,  -142.45,    124.918,   -18.76,    124.918,  -138.76,    124.918,   101.24,          0,     0.00, 2.11423E-8,    37.55
Line.M01,    85.7707,   -26.26,    85.7707,  -146.26,    85.7707,    93.74,          0,     0.00, 1.54385E-9,  -131.26,    85.7771,   153.73,    85.7771,    33.73,    85.7771,   -86.27,          0,     0.00, 1.54067E-9,    48.67
Line.M02,    36.5047,   -26.20,    36.5047,  -146.20,    36.5047,    93.80,          0,     0.00, 2.97631E-10,   -81.92,    36.5083,   153.79,    36.5083,    33.79,    36.5083,   -86.21,          0,     0.00, 2.98234E-10,    98.86
Line.LU1,    37.2493,   -26.28,    37.2493,  -146.28,    37.2493,    93.72,          0,     0.00, 5.31557E-10,   -92.26,     37.251,   153.72,     37.251,    33.72,     37.251,   -86.28,          0,     0.00, 5.25068E-10,    86.13
Line.LU2,    34.3676,   -26.28,    34.3676,  -146.28,    34.3676,    93.72,          0,     0.00, 5.38803E-10,   -95.18,    34.3705,   153.71,    34.3705,    33.71,    34.3705,   -86.29,          0,     0.00, 5.33127E-10,    85.06
Line.LU3,    34.0532,   -26.31,    34.0532,  -146.31,    34.0532,    93.69,          0,     0.00, 5.34981E-10,   -88.44,    34.0543,   153.69,    34.0543,    33.69,    34.0543,   -86.31,          0,     0.00, 5.3486E-10,    90.97
Line.LU4,    33.7804,   -26.32,    33.7804,  -146.32,    33.7804,    93.68,          0,     0.00, 5.0755E-10,   -98.45,    33.7816,   153.68,    33.7816,    33.68,    33.7816,   -86.32,          0,     0.00, 5.17837E-10,    82.13
Line.LU5,    30.8947,   -26.32,    30.8947,  -146.32,    30.8947,    93.68,          0,     0.00, 5.31746E-10,   -98.66,     30.897,   153.67,     30.897,    33.67,     30.897,   -86.33,          0,     0.00, 5.22481E-10,    81.39
Line.LU6,    27.7669,   -26.32,    27.7669,  -146.32,    27.7669,    93.68,          0,     0.00, 5.34908E-10,   -99.54,    27.7704,   153.67,    27.7704,    33.67,    27.7704,   -86.33,          0,     0.00, 5.41694E-10,    79.70
Line.LU7,    25.1216,   -26.33,    25.1216,  -146.33,    25.1216,    93.67,          0,     0.00, 5.32876E-10,  -101.57,    25.1245,   153.65,    25.1245,    33.65,    25.1245,   -86.35,          0,     0.00, 5.62122E-10,    78.66
Line.LU8,    22.7159,   -26.35,    22.7159,  -146.35,    22.7159,    93.65,          0,     0.00, 5.46119E-10,  -102.60,    22.7188,   153.63,    22.7188,    33.63,    22.7188,   -86.37,          0,     0.00, 5.51055E-10,    77.71
Line.LU9,    18.8554,   -26.32,    18.8554,  -146.32,    18.8554,    93.68,          0,     0.00, 5.51502E-10,  -103.35,    18.8588,   153.66,    18.8588,    33.66,    18.8588,   -86.34,          0,     0.00, 5.55447E-10,    78.29
Line.LU10,    14.9937,   -26.28,    14.9937,  -146.28,    14.9937,    93.72,          0,     0.00, 1.56729E-9,   -74.93,    14.9938,   153.72,    14.9938,    33.72,    14.9938,   -86.28,          0,     0.00, 7.00913E-10,    94.76
Line.LU11,     14.635,   -26.29,     14.635,  -146.29,     14.635,    93.71,          0,     0.00, 8.41951E-10,   142.15,    14.6367,   153.70,    14.6367,    33.70,    14.6367,   -86.30,          0,     0.00, 8.14912E-10,   -37.06
Line.LU12,    11.0143,   -26.22,    11.0143,  -146.22,    11.0143,    93.78,          0,     0.00, 8.36933E-10,   141.88,    11.0159,   153.76,    11.0159,    33.76,    11.0159,   -86.24,          0,     0.00, 8.40456E-10,   -36.06
Line.LU13,    7.14976,   -26.04,    7.14976,  -146.04,    7.14976,    93.96,          0,     0.00, 7.5684E-10,   142.03,    7.14987,   153.96,    7.14987,    33.96,    7.14987,   -86.04,          0,     0.00, 1.04541E-9,   -51.22
Line.LU14,    4.11942,   -26.18,    4.11942,  -146.18,    4.11942,    93.82,          0,     0.00, 3.09228E-11,   -28.07,     4.1202,   153.79,     4.1202,    33.79,     4.1202,   -86.21,          0,     0.00, 4.06738E-11,   116.57
Line.LU15,       2.65,   -26.18,       2.65,  -146.18,       2.65,    93.82,          0,     0.00, 1.23705E-11,   -36.03,    2.65344,   153.67,    2.65344,    33.67,    2.65344,   -86.33,          0,     0.00, 3.74994E-12,    75.96
Line.LU16,    3.03048,   -25.85,    3.03048,  -145.85,    3.03048,    94.15,          0,     0.00, 7.66311E-10,   144.27,    3.03205,   154.09,    3.03205,    34.09,    3.03205,   -85.91,          0,     0.00, 7.68949E-10,   -34.59
Line.LU17,   0.620267,   -24.42,   0.620267,  -144.42,   0.620267,    95.58,          0,     0.00, 7.66823E-10,   147.74,   0.623479,   154.93,   0.623479,    34.93,   0.623479,   -85.07,          0,     0.00, 7.62049E-10,   -33.46
Line.LU18,    3.24328,   153.10,    3.24328,    33.10,    3.24328,   -86.90,          0,     0.00, 7.68217E-10,   147.33,     3.2415,   -26.84,     3.2415,  -146.84,     3.2415,    93.16,          0,     0.00, 7.49451E-10,   -33.27
Line.LU19,    6.14412,   153.23,    6.14412,    33.23,    6.14412,   -86.77,          0,     0.00, 7.94013E-10,   152.73,    6.14324,   -26.75,    6.14324,  -146.75,    6.14324,    93.25,          0,     0.00, 7.28877E-10,   -26.69
Line.LU20,    14.3651,   153.58,    14.3651,    33.58,    14.3651,   -86.42,          0,     0.00, 1.01081E-9,   157.13,    14.3634,   -26.41,    14.3634,  -146.41,    14.3634,    93.59,          0,     0.00, 9.90383E-10,   -22.92
Line.LU21,    15.7279,   153.60,    15.7279,    33.60,    15.7279,   -86.40,          0,     0.00, 1.02072E-9,   160.21,    15.7267,   -26.39,    15.7267,  -146.39,    15.7267,    93.61,          0,     0.00, 1.02043E-9,   -21.76
Line.LU22,    16.8627,   153.66,    16.8627,    33.66,    16.8627,   -86.34,          0,     0.00, 8.23695E-10,   122.01,    16.8627,   -26.34,    16.8627,  -146.34,    16.8627,    93.66,          0,     0.00, 1.45519E-9,   -53.13
Line.LU23,    43.8001,   153.66,    43.8001,    33.66,    43.8001,   -86.34,          0,     0.00, 9.22292E-10,   -44.28,    43.7982,   -26.34,    43.7982,  -146.34,    43.7982,    93.66,          0,     0.00, 9.42156E-10,   135.04
Line.LU24,    46.6909,   153.66,    46.6909,    33.66,    46.6909,   -86.34,          0,     0.00, 1.13505E-9,    67.38,    46.6908,   -26.34,    46.6908,  -146.34,    46.6908,    93.66,          0,     0.00, 1.15868E-9,  -115.28
Line.LU25,    46.7035,   153.67,    46.7035,    33.67,    46.7035,   -86.33,          0,     0.00, 1.03611E-9,    37.15,    46.7032,   -26.33,    46.7032,  -146.33,    46.7032,    93.67,          0,     0.00, 1.13108E-9,  -146.41
Line.LU26,    48.1332,   153.69,    48.1332,    33.69,    48.1332,   -86.31,          0,     0.00, 1.00266E-9,    31.50,    48.1328,   -26.31,    48.1328,  -146.31,    48.1328,    93.69,          0,     0.00, 1.07714E-9,  -152.66
Line.LU27,    48.1456,   153.70,    48.1456,    33.70,    48.1456,   -86.30,          0,     0.00, 1.11425E-9,    35.53,    48.1443,   -26.30,    48.1443,  -146.30,    48.1443,    93.70,          0,     0.00, 1.08205E-9,  -143.96
Line.LU28,    48.1443,   153.70,    48.1443,    33.70,    48.1443,   -86.30,          0,     0.00, 1.18962E-9,    33.40,    48.1432,   -26.30,    48.1432,  -146.30,    48.1432,    93.70,          0,     0.00, 1.16995E-9,  -145.96
Line.LU29,    48.5187,   153.71,    48.5187,    33.71,    48.5187,   -86.29,          0,     0.00, 1.17076E-9,    30.95,    48.5163,   -26.28,    48.5163,  -146.28,    48.5163,    93.72,          0,     0.00, 1.16875E-9,  -148.78
Line.LU30,    48.5291,   153.73,    48.5291,    33.73,    48.5291,   -86.27,          0,     0.00, 1.18753E-9,    30.98,    48.5245,   -26.26,    48.5245,  -146.26,    48.5245,    93.74,          0,     0.00, 1.18551E-9,  -149.27
Line.LU31,    48.5284,   153.74,    48.5284,    33.74,    48.5284,   -86.26,          0,     0.00, 1.21101E-9,    31.11,    48.5278,   -26.26,    48.5278,  -146.26,    48.5278,    93.74,          0,     0.00, 1.18733E-9,  -149.43
Line.LU32,    26.9374,   -26.34,    26.9374,  -146.34,    26.9374,    93.66,          0,     0.00,  1.5134E-9,    67.38,    26.9374,   153.66,    26.9374,    33.66,    26.9374,   -86.34,          0,     0.00, 9.75738E-10,   -72.65
Line.LU33,    21.6387,   -26.33,    21.6387,  -146.33,    21.6387,    93.67,          0,     0.00, 1.7052E-10,   -33.69,    21.6392,   153.66,    21.6392,    33.66,    21.6392,   -86.34,          0,     0.00, 9.76172E-11,   153.43
Line.LU34,    17.7739,   -26.28,    17.7739,  -146.28,    17.7739,    93.72,          0,     0.00, 9.55662E-11,     2.18,    17.7757,   153.71,    17.7757,    33.71,    17.7757,   -86.29,          0,     0.00, 8.64786E-11,   177.59
Line.LU35,    12.8071,   -26.30,    12.8071,  -146.30,    12.8071,    93.70,          0,     0.00, 1.71603E-11,   122.01,    12.8078,   153.69,    12.8078,    33.69,    12.8078,   -86.31,          0,     0.00, 4.24647E-11,  -136.74
Line.LU36,    12.8089,   -26.32,    12.8089,  -146.32,    12.8089,    93.68,          0,     0.00, 9.20524E-11,   -60.40,    12.8094,   153.68,    12.8094,    33.68,    12.8094,   -86.32,          0,     0.00, 8.8833E-11,    79.38
Line.LU37,     10.156,   -26.32,     10.156,  -146.32,     10.156,    93.68,          0,     0.00, 4.60531E-11,     9.09,    10.1567,   153.67,    10.1567,    33.67,    10.1567,   -86.33,          0,     0.00, 9.09495E-12,   180.00
Line.LU38,    9.90211,   -26.42,    9.90211,  -146.42,    9.90211,    93.58,          0,     0.00, 4.38071E-11,    94.76,     9.9025,   153.57,     9.9025,    33.57,     9.9025,   -86.43,          0,     0.00, 1.90604E-10,   -13.24
Line.LU39,     9.5309,   -26.51,     9.5309,  -146.51,     9.5309,    93.49,          0,     0.00, 1.09155E-10,    23.57,    9.53149,   153.48,    9.53149,    33.48,    9.53149,   -86.52,          0,     0.00, 1.17223E-10,  -131.86
Line.LU40,    9.51875,   -26.56,    9.51875,  -146.56,    9.51875,    93.44,          0,     0.00, 1.09442E-10,   -15.42,    9.51944,   153.44,    9.51944,    33.44,    9.51944,   -86.56,          0,     0.00, 5.99991E-11,   165.96
Line.LU41,    1.79504,   -26.23,    1.79504,  -146.23,    1.79504,    93.77,          0,     0.00, 6.21658E-11,   -20.56,    1.79557,   153.73,    1.79557,    33.73,    1.79557,   -86.27,          0,     0.00, 6.35346E-11,  -113.63
Line.LU42,    1.09866,   153.58,    1.09866,    33.58,    1.09866,   -86.42,          0,     0.00, 2.35943E-11,  -152.45,    1.09625,   -26.17,    1.09625,  -146.17,    1.09625,    93.83,          0,     0.00, 3.58415E-11,    54.29
Line.LU43,    4.96342,   153.49,    4.96342,    33.49,    4.96342,   -86.51,          0,     0.00, 1.62695E-11,   116.57,    4.96161,   -26.47,    4.96161,  -146.47,    4.96161,    93.53,          0,     0.00, 4.19651E-11,   -60.10
Line.LU44,    4.96161,   153.53,    4.96161,    33.53,    4.96161,   -86.47,          0,     0.00, 9.83769E-12,   146.31,    4.95835,   -26.39,    4.95835,  -146.39,    4.95835,    93.61,          0,     0.00, 7.49989E-12,    14.04
Line.LU45,     4.9711,   153.68,     4.9711,    33.68,     4.9711,   -86.32,          0,     0.00, 2.02605E-11,   134.09,     4.9686,   -26.26,     4.9686,  -146.26,     4.9686,    93.74,          0,     0.00, 2.57605E-11,   -20.67
Line.LU46,    8.22205,   -26.18,    8.22205,  -146.18,    8.22205,    93.82,          0,     0.00, 2.69855E-10,    -7.75,    8.22382,   153.80,    8.22382,    33.80,    8.22382,   -86.20,          0,     0.00, 2.93962E-10,   175.03
Line.LU47,    5.32918,   -26.12,    5.32918,  -146.12,    5.32918,    93.88,          0,     0.00, 2.26024E-10,    -3.69,    5.32963,   153.87,    5.32963,    33.87,    5.32963,   -86.13,          0,     0.00, 2.4781E-10,  -176.63
Line.LU48,    5.32963,   -26.13,    5.32963,  -146.13,    5.32963,    93.87,          0,     0.00, 2.79367E-10,    -8.24,    5.33076,   153.85,    5.33076,    33.85,    5.33076,   -86.15,          0,     0.00, 3.09554E-10,   173.25
Line.LU49,    2.91889,   -26.05,    2.91889,  -146.05,    2.91889,    93.95,          0,     0.00, 2.75359E-10,   -43.39,    2.91928,   153.93,    2.91928,    33.93,    2.91928,   -86.07,          0,     0.00, 2.76319E-10,   170.91
Line.LU50,    2.89449,   -26.34,    2.89449,  -146.34,    2.89449,    93.66,          0,     0.00, 3.79925E-11,   -11.04,    2.89566,   153.61,    2.89566,    33.61,    2.89566,   -86.39,          0,     0.00, 5.50526E-11,   172.41
Line.LU51,   0.028485,     3.33,   0.028485,  -116.67,   0.028485,   123.33,          0,     0.00, 1.64636E-10,   -45.00,  0.0284369,  -179.27,  0.0284369,    60.73,  0.0284369,   -59.27,          0,     0.00, 2.48876E-10,   127.87
Line.LU52,  0.0142233,     1.61,  0.0142233,  -118.39,  0.0142233,   121.61,          0,     0.00, 2.13992E-10,  -125.31,  0.0142169,   179.85,  0.0142169,    59.85,  0.0142169,   -60.15,          0,     0.00, 1.80731E-10,   -40.10
Line.LU54,    7.05417,   -26.17,    7.05417,  -146.17,    7.05417,    93.83,          0,     0.00, 3.50628E-11,     2.97,    7.05741,   153.77,    7.05741,    33.77,    7.05741,   -86.23,          0,     0.00, 3.13611E-11,   163.14
Line.LU55,    6.46526,   -26.30,    6.46526,  -146.30,    6.46526,    93.70,          0,     0.00, 3.24914E-11,     6.43,    6.46784,   153.65,    6.46784,    33.65,    6.46784,   -86.35,          0,     0.00, 2.43746E-11,  -171.42
Line.LU56,    3.35338,   -26.34,    3.35338,  -146.34,    3.35338,    93.66,          0,     0.00, 1.20057E-11,  -114.62,    3.35631,   153.56,    3.35631,    33.56,    3.35631,   -86.44,          0,     0.00, 1.99468E-11,   133.15
Line.LU57,    27.0595,   -26.21,    27.0595,  -146.21,    27.0595,    93.79,          0,     0.00, 2.76702E-10,   -87.74,    27.0631,   153.77,    27.0631,    33.77,    27.0631,   -86.23,          0,     0.00, 2.80657E-10,    93.53
Line.LU58,    27.0502,   -26.24,    27.0502,  -146.24,    27.0502,    93.76,          0,     0.00, 2.75763E-10,   -84.89,    27.0531,   153.75,    27.0531,    33.75,    27.0531,   -86.25,          0,     0.00, 2.8259E-10,    93.88
Line.LU59,    26.4076,   -26.27,    26.4076,  -146.27,    26.4076,    93.73,          0,     0.00, 2.91856E-10,   -94.29,    26.4084,   153.72,    26.4084,    33.72,    26.4084,   -86.28,          0,     0.00, 2.70412E-10,    84.60
Line.LU60,     23.771,   -26.28,     23.771,  -146.28,     23.771,    93.72,          0,     0.00, 7.97871E-11,   -65.77,    23.7713,   153.72,    23.7713,    33.72,    23.7713,   -86.28,          0,     0.00, 1.74774E-10,    92.39
Line.LU61,     21.374,   -26.28,     21.374,  -146.28,     21.374,    93.72,          0,     0.00, 2.72874E-10,   -80.60,    21.3752,   153.71,    21.3752,    33.71,    21.3752,   -86.29,          0,     0.00, 3.14322E-10,   106.13
Line.LU62,    17.5314,   -26.23,    17.5314,  -146.23,    17.5314,    93.77,          0,     0.00, 3.49322E-10,   -88.81,    17.5317,   153.77,    17.5317,    33.77,    17.5317,   -86.23,          0,     0.00, 4.10625E-10,    82.87
Line.LU63,    15.1345,   -26.24,    15.1345,  -146.24,    15.1345,    93.76,          0,     0.00, 1.75155E-10,   -85.53,    15.1359,   153.75,    15.1359,    33.75,    15.1359,   -86.25,          0,     0.00, 1.75871E-10,    96.83
Line.LU64,    3.37289,   -26.31,    3.37289,  -146.31,    3.37289,    93.69,          0,     0.00, 8.73872E-11,   -87.61,    3.37337,   153.68,    3.37337,    33.68,    3.37337,   -86.32,          0,     0.00, 7.06368E-11,   124.51
Line.LU65,  0.0143558,     5.08,  0.0143558,  -114.92,  0.0143558,   125.08,          0,     0.00, 1.2893E-10,    16.39,  0.0142979,   179.89,  0.0142979,    59.89,  0.0142979,   -60.11,          0,     0.00, 9.35321E-11,  -166.50
Line.LU66,    11.7631,   -26.24,    11.7631,  -146.24,    11.7631,    93.76,          0,     0.00, 6.19525E-11,   -93.37,     11.765,   153.74,     11.765,    33.74,     11.765,   -86.26,          0,     0.00, 6.82121E-11,   106.26
Line.LU67,    3.36069,   -26.42,    3.36069,  -146.42,    3.36069,    93.58,          0,     0.00, 4.45931E-11,   -78.23,    3.36168,   153.55,    3.36168,    33.55,    3.36168,   -86.45,          0,     0.00, 7.24177E-11,    64.72
Line.LU68,    5.76576,   -26.15,    5.76576,  -146.15,    5.76576,    93.85,          0,     0.00, 1.18234E-11,   112.62,    5.76728,   153.82,    5.76728,    33.82,    5.76728,   -86.18,          0,     0.00, 1.66961E-11,   119.36
Line.LU69,  0.0158913,    25.83,  0.0158913,   -94.17,  0.0158913,   145.83,          0,     0.00, 9.09495E-12,   -36.87,   0.014295,   179.89,   0.014295,    59.89,   0.014295,   -60.11,          0,     0.00, 3.66629E-12,    97.13
Line.LU70,    2.87787,   -26.27,    2.87787,  -146.27,    2.87787,    93.73,          0,     0.00, 3.11361E-11,    -6.71,    2.87903,   153.68,    2.87903,    33.68,    2.87903,   -86.32,          0,     0.00, 5.32501E-11,   172.15
Line.LU73, 0.00237998,    89.89, 0.00237998,   -30.11, 0.00237998,  -150.11,          0,     0.00, 2.82383E-11,  -165.07, 2.03369E-11,  -169.70, 1.15043E-11,    71.57, 2.91038E-11,   -90.00,          0,     0.00, 2.72848E-11,  -126.87
Transformer.RAM_MANDIR,    2.88341,   -26.36,    2.88341,  -146.36,    2.88341,    93.64,          0,     0.00, 5.68434E-14,   -90.00,    76.0895,   123.52,    76.0895,     3.52,    76.0895,  -116.48, 1.50427E-8,   -57.08, 4.54747E-13,   180.00
Transformer.DEMPO_DTC,   0.317515,   -24.41,   0.317515,  -144.41,   0.317515,    95.59,          0,     0.00, 2.84217E-14,   180.00,    8.07298,   124.49,    8.07298,     4.49,    8.07298,  -115.51, 1.58568E-9,   -55.64, 1.38306E-12,  -170.54
Transformer.RB_ENGG,   0.273937,   -25.13,   0.273937,  -145.13,   0.273937,    94.87,          0,     0.00, 1.42109E-14,   -90.00,    6.92029,   123.55,    6.92029,     3.55,    6.92029,  -116.45, 1.35907E-9,   -56.58, 8.19807E-13,   146.31
Transformer.UNDIR_BAKALE,    2.88694,   -26.37,    2.88694,  -146.37,    2.88694,    93.63,          0,     0.00, 2.84217E-14,   180.00,    76.1834,   123.51,    76.1834,     3.51,    76.1834,  -116.49,  1.5081E-8,   -57.09, 9.37486E-13,   -14.04
Transformer.MULEBHAT,    3.13007,   -26.43,    3.13007,  -146.43,    3.13007,    93.57,          0,     0.00, 5.1238E-14,  -146.31,    82.6283,   123.46,    82.6283,     3.46,    82.6283,  -116.54,  1.6375E-8,   -57.19, 1.13687E-12,   -53.13
Transformer.MARUTI_TEMPLE,     2.6487,   -26.32,     2.6487,  -146.32,     2.6487,    93.68,          0,     0.00, 4.26326E-14,   180.00,     69.869,   123.55,     69.869,     3.55,     69.869,  -116.45, 1.38367E-8,   -57.01, 1.38306E-12,  -170.54
Transformer.CHIKALI,    2.40867,   -26.26,    2.40867,  -146.26,    2.40867,    93.74,          0,     0.00, 3.17764E-14,   -63.43,    63.5066,   123.59,    63.5066,     3.59,    63.5066,  -116.41, 1.25734E-8,   -56.92, 1.94268E-12,    20.56
Transformer.ADPAI,    3.86339,   -26.60,    3.86339,  -146.60,    3.86339,    93.40,          0,     0.00, 2.84217E-14,     0.00,    102.067,   123.31,    102.067,     3.31,    102.067,  -116.69, 2.03016E-8,   -57.49, 1.38306E-12,   170.54
Transformer.DURBHAT,    3.86509,   -26.60,    3.86509,  -146.60,    3.86509,    93.40,          0,     0.00, 5.85929E-14,   -14.04,    102.112,   123.31,    102.112,     3.31,    102.112,  -116.69, 2.03205E-8,   -57.49, 1.73163E-12,   156.80
Transformer.SEWERAGE,   0.358776,   -25.73,   0.358776,  -145.73,   0.358776,    94.27,          0,     0.00, 4.01944E-14,   -45.00,    9.17125,   123.26,    9.17125,     3.26,    9.17125,  -116.74, 1.80902E-9,   -56.87, 1.73163E-12,  -156.80
Transformer.KASWADA,    3.62251,   -26.55,    3.62251,  -146.55,    3.62251,    93.45,          0,     0.00, 2.00972E-14,  -135.00,    95.6822,   123.35,    95.6822,     3.35,    95.6822,  -116.65, 1.90316E-8,   -57.40, 8.19807E-13,   -33.69
Transformer.LONDIYAR_WADEM,    3.86628,   -26.61,    3.86628,  -146.61,    3.86628,    93.39,          0,     0.00, 4.26326E-14,   180.00,    102.144,   123.30,    102.144,     3.30,    102.144,  -116.70, 2.03335E-8,   -57.49, 3.21555E-13,  -135.00
Transformer.NEW_TALAULIM,     1.4702,   -26.25,     1.4702,  -146.25,     1.4702,    93.75,          0,     0.00, 2.00972E-14,  -135.00,    38.6317,   123.51,    38.6317,     3.51,    38.6317,  -116.49, 7.63863E-9,   -56.82, 1.60777E-12,     8.13
Transformer.WADI,    2.65344,   -26.33,    2.65344,  -146.33,    2.65344,    93.67,          0,     0.00, 5.85929E-14,  -104.04,    69.9951,   123.53,    69.9951,     3.53,    69.9951,  -116.47, 1.38855E-8,   -57.02, 6.82121E-13,   -90.00
Transformer.TALAULIM,    2.41205,   -26.29,    2.41205,  -146.29,    2.41205,    93.71,          0,     0.00, 1.42109E-14,   180.00,    63.5966,   123.56,    63.5966,     3.56,    63.5966,  -116.44, 1.26092E-8,   -56.97, 1.13687E-12,     0.00
Transformer.MAHALAKSHMI_NAGAR,    3.86649,   -26.61,    3.86649,  -146.61,    3.86649,    93.39,          0,     0.00, 3.17764E-14,  -116.57,     102.15,   123.30,     102.15,     3.30,     102.15,  -116.70, 2.03393E-8,   -57.49, 1.3258E-12,   -59.04
Transformer.PAUNWADA,    2.90262,   -26.69,    2.90262,  -146.69,    2.90262,    93.31,          0,     0.00, 2.92964E-14,    75.96,     76.601,   123.19,     76.601,     3.19,     76.601,  -116.81, 1.52504E-8,   -57.70, 9.64665E-13,   135.00
Transformer.KAVLE_MATH,    1.36448,   -26.34,    1.36448,  -146.34,    1.36448,    93.66,          0,     0.00, 2.84217E-14,   180.00,    35.8295,   123.40,    35.8295,     3.40,    35.8295,  -116.60, 7.08133E-9,   -56.92, 5.08423E-13,  -116.57
Transformer.SHANTADURGA_OLD,    1.13614,   -25.60,    1.13614,  -145.60,    1.13614,    94.40,          0,     0.00, 4.49387E-14,   -18.43,     29.775,   124.09,     29.775,     4.09,     29.775,  -115.91, 5.87974E-9,   -56.16, 6.82121E-13,     0.00
Transformer.SANATAN_1,    2.89262,   -26.38,    2.89262,  -146.38,    2.89262,    93.62,          0,     0.00, 4.26326E-14,     0.00,    76.3347,   123.50,    76.3347,     3.50,    76.3347,  -116.50, 1.51424E-8,   -57.11, 5.08423E-13,    26.57
Transformer.SANATAN_2,  0.0142317,    -0.14,  0.0142317,  -120.14,  0.0142317,   119.86,          0,     0.00, 6.35529E-14,   116.57,          0,     0.00,          0,     0.00, 1.81899E-12,   180.00, 1.01685E-12,   -26.57, 1.01685E-12,  -153.43
Transformer.RAMNATHI_DEVASTHAN,    1.43009,   -25.69,    1.43009,  -145.69,    1.43009,    94.31,          0,     0.00, 4.01944E-14,    45.00,    37.5664,   124.06,    37.5664,     4.06,    37.5664,  -115.94, 7.41951E-9,   -56.24, 4.54747E-13,   -90.00
Transformer.RAMNATHI,  0.0142351,    -0.14,  0.0142351,  -120.14,  0.0142351,   119.86,          0,     0.00, 2.84217E-14,   180.00, 6.82121E-13,   180.00, 2.03369E-12,   116.57, 9.09495E-13,     0.00, 1.01685E-12,   -26.57, 1.38306E-12,    80.54
Transformer.RPRS_SCHOOL,   0.375613,   -25.08,   0.375613,  -145.08,   0.375613,    94.92,          0,     0.00, 2.84217E-14,   -90.00,    9.61506,   123.98,    9.61506,     3.98,    9.61506,  -116.02, 1.89055E-9,   -56.15, 8.19807E-13,    56.31
Transformer.TOLULEM,   0.014258,    -0.13,   0.014258,  -120.13,   0.014258,   119.87,          0,     0.00,          0,     0.00, 4.54747E-13,   180.00, 1.63961E-12,  -146.31, 1.01685E-12,    26.57, 9.37486E-13,    14.04, 2.27374E-13,   -90.00
Transformer.KHARWADA, 0.00435328,    -0.14, 0.00435328,  -120.14, 0.00435328,   119.86,          0,     0.00, 7.10543E-15,   -90.00, 1.13687E-13,   180.00, 2.27374E-13,   -90.00, 2.27374E-13,   -90.00, 5.68434E-13,    36.87, 3.59509E-13,   -18.43
Transformer.SHANTADURGA_NEW,    5.29874,   -26.37,    5.29874,  -146.37,    5.29874,    93.63,          0,     0.00, 8.03887E-14,    45.00,    139.852,   123.51,    139.852,     3.51,    139.852,  -116.49, 2.77213E-8,   -57.05, 1.13687E-12,    36.87
Transformer.GALSHIRE,    3.86534,   -26.60,    3.86534,  -146.60,    3.86534,    93.40,          0,     0.00, 2.00972E-14,  -135.00,    102.119,   123.31,    102.119,     3.31,    102.119,  -116.69, 2.03287E-8,   -57.48, 1.13687E-12,   143.13
Transformer.RAJENDRA_TALAK,   0.255112,   -22.59,   0.255112,  -142.59,   0.255112,    97.41,          0,     0.00, 5.68434E-14,     0.00,    5.86518,   123.74,    5.86518,     3.74,    5.86518,  -116.26,  1.1558E-9,   -56.36, 4.47874E-12,    66.04
Transformer.RITESH_DEVELOPERS,   0.371873,   -24.29,   0.371873,  -144.29,   0.371873,    95.71,          0,     0.00, 2.84217E-14,   180.00,    9.25307,   124.03,    9.25307,     4.03,    9.25307,  -115.97, 1.82239E-9,   -56.02, 2.23937E-12,    66.04
Transformer.VENKATESH_LEELA,  0.0142162,    -0.15,  0.0142162,  -120.15,  0.0142162,   119.85,          0,     0.00, 3.17764E-14,  -153.43, 9.37486E-13,  -104.04, 1.28622E-12,   135.00, 1.87497E-12,   -14.04, 1.87497E-12,  -165.96, 1.4559E-12,  -141.34
Transformer.PERIGOL,    7.72443,   -26.64,    7.72443,  -146.64,    7.72443,    93.36,          0,     0.00,          0,     0.00,     204.15,   123.28,     204.15,     3.28,     204.15,  -116.72, 4.06218E-8,   -57.54, 1.13687E-12,    90.00
Transformer.MANMOHAN_SINGH,    2.89423,   -26.33,    2.89423,  -146.33,    2.89423,    93.67,          0,     0.00, 4.49387E-14,  -108.43,    76.3777,   123.55,    76.3777,     3.55,    76.3777,  -116.45, 1.51604E-8,   -56.99, 3.21555E-13,   135.00
Transformer.DHUMRE,    3.86719,   -26.61,    3.86719,  -146.61,    3.86719,    93.39,          0,     0.00, 4.01944E-14,  -135.00,    102.168,   123.30,    102.168,     3.30,    102.168,  -116.70, 2.03479E-8,   -57.49, 7.19019E-13,    18.43
Transformer.SHASHIKALA_PAI,  0.0142181,    -0.15,  0.0142181,  -120.15,  0.0142181,   119.85,          0,     0.00, 4.01944E-14,  -135.00, 1.01685E-12,  -116.57, 9.09495E-13,   180.00, 9.37486E-13,    14.04, 1.13687E-12,    90.00, 6.4311E-13,   135.00
Transformer.KAPILESHWARI,    2.89466,   -26.36,    2.89466,  -146.36,    2.89466,    93.64,          0,     0.00, 1.42109E-14,     0.00,    76.3891,   123.52,    76.3891,     3.52,    76.3891,  -116.48, 1.51639E-8,   -57.05, 1.15938E-12,    78.69
Transformer.MATRUCHAYA,    2.41188,   -26.27,    2.41188,  -146.27,    2.41188,    93.73,          0,     0.00, 2.00972E-14,    45.00,    63.5921,   123.58,    63.5921,     3.58,    63.5921,  -116.42, 1.26103E-8,   -56.92, 1.01685E-12,   -26.57
Transformer.VAMNESHWAR,    2.89566,   -26.39,    2.89566,  -146.39,    2.89566,    93.61,          0,     0.00, 3.17764E-14,    26.57,    76.4157,   123.49,    76.4157,     3.49,    76.4157,  -116.51, 1.51743E-8,   -57.11, 1.95594E-12,  -125.54
Transformer.GOLDEN_PROPERTIES,  0.0142169,    -0.15,  0.0142169,  -120.15,  0.0142169,   119.85,          0,     0.00, 2.00972E-14,   -45.00, 9.09495E-13,    90.00, 1.28622E-12,  -135.00, 2.27374E-13,   -90.00, 1.28622E-12,   -45.00, 1.13687E-12,   -90.00
Transformer.RITESH,  0.0142169,    -0.15,  0.0142169,  -120.15,  0.0142169,   119.85,          0,     0.00, 2.84217E-14,     0.00,          0,     0.00, 9.09495E-13,     0.00, 9.37486E-13,   165.96, 9.09495E-13,     0.00, 9.37486E-13,    14.04
Transformer.T_SNEH_MANDIR,    2.65343,   -26.33,    2.65343,  -146.33,    2.65343,    93.67,          0,     0.00, 2.00972E-14,   -45.00,    69.9948,   123.53,    69.9948,     3.53,    69.9948,  -116.47, 1.38907E-8,   -57.02, 3.21555E-13,    45.00
Transformer.T_RAIGUINIM,    2.87903,   -26.32,    2.87903,  -146.32,    2.87903,    93.68,          0,     0.00, 2.84217E-14,    90.00,    75.9729,   123.56,    75.9729,     3.56,    75.9729,  -116.44, 1.49958E-8,   -57.03, 1.36424E-12,   180.00
Transformer.T_BANDORAPANCHAYAT,    2.87965,   -26.35,    2.87965,  -146.35,    2.87965,    93.65,          0,     0.00, 4.01944E-14,  -135.00,    75.9894,   123.53,    75.9894,     3.53,    75.9894,  -116.47, 1.50027E-8,   -57.08, 7.19019E-13,  -161.57
Transformer.T_KASHIMATHGROUND,   0.014295,    -0.11,   0.014295,  -120.11,   0.014295,   119.89,          0,     0.00,          0,     0.00, 4.54747E-13,   180.00, 9.09495E-13,     0.00, 9.37486E-13,    14.04, 1.01685E-12,   153.43, 8.19807E-13,    56.31
Transformer.T_NAGESHITEMPLE,    2.63854,   -26.27,    2.63854,  -146.27,    2.63854,    93.73,          0,     0.00, 4.01944E-14,   135.00,    69.5983,   123.59,    69.5983,     3.59,    69.5983,  -116.41, 1.37307E-8,   -56.97, 1.83315E-12,   -29.74
Transformer.T_DHONSHI,    3.36168,   -26.45,    3.36168,  -146.45,    3.36168,    93.55,          0,     0.00, 3.17764E-14,   -63.43,    88.7667,   123.44,    88.7667,     3.44,    88.7667,  -116.56, 1.75477E-8,   -57.27, 3.21555E-13,  -135.00
Transformer.T_AGRASHALA,    2.39724,   -26.20,    2.39724,  -146.20,    2.39724,    93.80,          0,     0.00, 4.01944E-14,   -45.00,    63.2019,   123.66,    63.2019,     3.66,    63.2019,  -116.34,  1.2453E-8,   -56.84, 1.36424E-12,     0.00
Transformer.T_HINDUJAN,    3.36112,   -26.45,    3.36112,  -146.45,    3.36112,    93.55,          0,     0.00, 5.1238E-14,    56.31,    88.7517,   123.44,    88.7517,     3.44,    88.7517,  -116.56, 1.75433E-8,   -57.27, 9.09495E-13,     0.00
Transformer.T_VAGDOR,  0.0142979,    -0.11,  0.0142979,  -120.11,  0.0142979,   119.89,          0,     0.00, 7.24614E-14,   -11.31,          0,     0.00,          0,     0.00,          0,     0.00,          0,     0.00,          0,     0.00
Transformer.T_MAHALAXMI,    3.84384,   -26.56,    3.84384,  -146.56,    3.84384,    93.44,          0,     0.00,          0,     0.00,    101.547,   123.35,    101.547,     3.35,    101.547,  -116.65, 2.00982E-8,   -57.45, 1.13687E-12,   -36.87
Transformer.T_PEARL,     2.3973,   -26.22,     2.3973,  -146.22,     2.3973,    93.78,          0,     0.00, 1.42109E-14,     0.00,    63.2037,   123.63,    63.2037,     3.63,    63.2037,  -116.37, 1.24538E-8,   -56.89, 9.64665E-13,    45.00
Transformer.T_KUNAL,    2.63735,   -26.28,    2.63735,  -146.28,    2.63735,    93.72,          0,     0.00, 3.17764E-14,   116.57,    69.5666,   123.58,    69.5666,     3.58,    69.5666,  -116.42, 1.37154E-8,   -56.99, 1.94268E-12,  -159.44
Transformer.T_SHAMRAO,   0.645605,   -25.48,   0.645605,  -145.48,   0.645605,    94.52,          0,     0.00, 4.49387E-14,   -18.43,    16.7709,   123.97,    16.7709,     3.97,    16.7709,  -116.03, 3.28825E-9,   -56.22, 2.27374E-13,    90.00
Transformer.T_MOGRU,  0.0143135,    -0.10,  0.0143135,  -120.10,  0.0143135,   119.90,          0,     0.00, 3.17764E-14,   -63.43, 1.01685E-12,  -116.57,          0,     0.00, 9.09495E-13,     0.00, 9.09495E-13,    90.00, 4.54747E-13,     0.00
Transformer.T_KONARGAUNEM,    2.39465,   -26.24,    2.39465,  -146.24,    2.39465,    93.76,          0,     0.00, 2.00972E-14,    45.00,     63.133,   123.61,     63.133,     3.61,     63.133,  -116.39, 1.24266E-8,   -56.93, 1.01685E-12,    26.57
Transformer.T_MGSCHOOL,   0.592217,   -25.41,   0.592217,  -145.41,   0.592217,    94.59,          0,     0.00, 1.42109E-14,   -90.00,    15.3553,   123.98,    15.3553,     3.98,    15.3553,  -116.02, 3.00832E-9,   -56.18, 1.01685E-12,   -63.43
Transformer.T_CHAFERAN,    3.11446,   -26.36,    3.11446,  -146.36,    3.11446,    93.64,          0,     0.00, 2.00972E-14,   135.00,     82.213,   123.53,     82.213,     3.53,     82.213,  -116.47, 1.62118E-8,   -57.09, 1.63961E-12,  -146.31
Transformer.T_SHIGUMOMAND,    3.35631,   -26.44,    3.35631,  -146.44,    3.35631,    93.56,          0,     0.00, 3.17764E-14,    26.57,    88.6237,   123.46,    88.6237,     3.46,    88.6237,  -116.54, 1.74937E-8,   -57.24, 1.01685E-12,   -26.57
Line.S01,    54.9824,   -26.90,    54.9824,  -146.90,    54.9824,    93.10,          0,     0.00, 9.35375E-9,    32.14,    54.9834,   153.10,    54.9834,    33.10,    54.9834,   -86.90,          0,     0.00, 9.38077E-9,  -147.80
Line.L1,    38.5151,   -26.91,    38.5151,  -146.91,    38.5151,    93.09,          0,     0.00, 6.47023E-9,    30.18,     38.516,   153.09,     38.516,    33.09,     38.516,   -86.91,          0,     0.00, 6.53144E-9,  -150.43
Line.L2,    37.6632,   -26.92,    37.6632,  -146.92,    37.6632,    93.08,          0,     0.00, 6.33763E-9,    29.58,    37.6642,   153.08,    37.6642,    33.08,    37.6642,   -86.92,          0,     0.00, 6.35836E-9,  -150.22
Line.L3,    35.4712,   -26.91,    35.4712,  -146.91,    35.4712,    93.09,          0,     0.00, 6.61093E-9,    33.69,    35.4712,   153.09,    35.4712,    33.09,    35.4712,   -86.91,          0,     0.00, 6.75717E-9,  -145.35
Line.L4,    29.0818,   -26.91,    29.0818,  -146.91,    29.0818,    93.09,          0,     0.00, 5.40815E-9,    29.41,    29.0827,   153.09,    29.0827,    33.09,    29.0827,   -86.91,          0,     0.00, 5.44146E-9,  -150.79
Line.L5,    28.7095,   -26.91,    28.7095,  -146.91,    28.7095,    93.09,          0,     0.00, 5.44191E-9,    29.65,    28.7099,   153.09,    28.7099,    33.09,    28.7099,   -86.91,          0,     0.00, 5.42073E-9,  -150.05
Line.L6,   0.525703,   154.31,   0.525703,    34.31,   0.525703,   -85.69,          0,     0.00, 9.46574E-11,    92.20,   0.525092,   -25.55,   0.525092,  -145.55,   0.525092,    94.45,          0,     0.00, 8.01182E-11,   -87.40
Line.L7,   0.951785,   153.98,   0.951785,    33.98,   0.951785,   -86.02,          0,     0.00, 5.99991E-11,  -104.04,   0.951406,   -25.97,   0.951406,  -145.97,   0.951406,    94.03,          0,     0.00, 3.91822E-11,    21.80
Line.L8,    2.39526,   153.60,    2.39526,    33.60,    2.39526,   -86.40,          0,     0.00, 2.93289E-10,  -154.27,     2.3923,   -26.26,     2.3923,  -146.26,     2.3923,    93.74,          0,     0.00, 2.90862E-10,    25.56
Line.L9,    3.84538,   153.49,    3.84538,    33.49,    3.84538,   -86.51,          0,     0.00, 5.75699E-10,  -150.88,    3.84374,   -26.46,    3.84374,  -146.46,    3.84374,    93.54,          0,     0.00, 5.71152E-10,    29.79
Line.L10,    6.67879,   -27.36,    6.67879,  -147.36,    6.67879,    92.64,          0,     0.00,  1.3513E-9,    33.50,    6.68049,   152.61,    6.68049,    32.61,    6.68049,   -87.39,          0,     0.00, 1.33601E-9,  -147.00
Line.L11,    2.71726,   -26.94,    2.71726,  -146.94,    2.71726,    93.06,          0,     0.00, 5.51835E-10,    32.28,    2.71869,   153.00,    2.71869,    33.00,    2.71869,   -87.00,          0,     0.00, 5.39308E-10,  -146.42
Line.L12,    16.4683,   -26.87,    16.4683,  -146.87,    16.4683,    93.13,          0,     0.00, 2.60394E-9,    25.13,    16.4684,   153.13,    16.4684,    33.13,    16.4684,   -86.87,          0,     0.00, 2.70728E-9,  -153.16
Line.L13,    2.13067,   -26.55,    2.13067,  -146.55,    2.13067,    93.45,          0,     0.00, 3.90808E-10,    24.18,    2.13148,   153.41,    2.13148,    33.41,    2.13148,   -86.59,          0,     0.00, 3.52509E-10,  -148.93
Line.L14,    14.3378,   -26.92,    14.3378,  -146.92,    14.3378,    93.08,          0,     0.00, 2.75939E-9,    26.13,    14.3386,   153.07,    14.3386,    33.07,    14.3386,   -86.93,          0,     0.00, 2.74711E-9,  -152.04
Line.L15,    10.4501,   -26.88,    10.4501,  -146.88,    10.4501,    93.12,          0,     0.00, 1.98523E-9,    24.99,    10.4533,   153.09,    10.4533,    33.09,    10.4533,   -86.91,          0,     0.00, 1.97004E-9,  -155.27
Line.L16,    9.85663,   -26.93,    9.85663,  -146.93,    9.85663,    93.07,          0,     0.00, 1.78332E-9,    30.12,     9.8584,   153.05,     9.8584,    33.05,     9.8584,   -86.95,          0,     0.00, 1.76134E-9,  -149.46
Line.L17, 0.00133542,    89.38, 0.00133542,   -30.62, 0.00133542,  -150.62,          0,     0.00, 9.26078E-11,   -45.00, 2.93303E-11,  -150.26, 3.86722E-11,   131.19, 2.91038E-11,    90.00,          0,     0.00, 6.7081E-11,   139.40
Line.L18,    20.1033,   -27.09,    20.1033,  -147.09,    20.1033,    92.91,          0,     0.00, 3.64973E-9,    24.62,    20.1039,   152.91,    20.1039,    32.91,    20.1039,   -87.09,          0,     0.00,  3.5745E-9,  -155.21
Line.L19,    15.8365,   -27.22,    15.8365,  -147.22,    15.8365,    92.78,          0,     0.00,  3.3217E-9,    34.11,    15.8365,   152.78,    15.8365,    32.78,    15.8365,   -87.22,          0,     0.00, 3.22702E-9,  -148.46
Line.L20,    13.8902,   -27.24,    13.8902,  -147.24,    13.8902,    92.76,          0,     0.00, 2.89896E-9,    34.21,    13.8907,   152.75,    13.8907,    32.75,    13.8907,   -87.25,          0,     0.00, 2.76402E-9,  -145.35
Line.L21,    3.11346,   -27.04,    3.11346,  -147.04,    3.11346,    92.96,          0,     0.00, 6.11205E-10,    37.38,    3.11407,   152.94,    3.11407,    32.94,    3.11407,   -87.06,          0,     0.00, 5.68576E-10,  -146.61
Line.L22, 0.000482323,    89.37, 0.000482323,   -30.63, 0.000482323,  -150.63,          0,     0.00,          0,     0.00, 1.11063E-10,    31.61, 2.99995E-11,   104.04, 1.19998E-10,  -104.04,          0,     0.00, 6.50781E-11,   -26.57
Line.L23,    3.79884,   -26.29,    3.79884,  -146.29,    3.79884,    93.71,          0,     0.00, 7.80309E-10,    29.46,    3.80118,   153.63,    3.80118,    33.63,    3.80118,   -86.37,          0,     0.00, 7.99333E-10,  -150.71
Line.L24,    2.30824,   -26.22,    2.30824,  -146.22,    2.30824,    93.78,          0,     0.00, 4.9052E-10,    32.28,     2.3088,   153.75,     2.3088,    33.75,     2.3088,   -86.25,          0,     0.00, 4.2188E-10,  -147.68
Line.L25,    1.62601,   -26.11,    1.62601,  -146.11,    1.62601,    93.89,          0,     0.00, 3.24902E-10,    34.05,    1.62795,   153.75,    1.62795,    33.75,    1.62795,   -86.25,          0,     0.00, 3.43824E-10,  -145.89
Line.L26,   0.419717,   -24.55,   0.419717,  -144.55,   0.419717,    95.45,          0,     0.00, 9.12049E-11,    41.16,   0.422534,   154.60,   0.422534,    34.60,   0.422534,   -85.40,          0,     0.00, 8.65897E-11,  -142.47
Line.L27, 0.00988811,    89.37, 0.00988811,   -30.63, 0.00988811,  -150.63,          0,     0.00, 6.36646E-12,    90.00, 3.88536E-12,    69.44, 4.57015E-12,   -95.71,          0,     0.00,          0,     0.00, 1.28622E-12,   -45.00
Line.L28,    29.0804,   -26.90,    29.0804,  -146.90,    29.0804,    93.10,          0,     0.00, 5.51143E-9,    29.54,    29.0818,   153.09,    29.0818,    33.09,    29.0818,   -86.91,          0,     0.00, 5.53184E-9,  -150.45
Line.L29,    6.39088,   -26.96,    6.39088,  -146.96,    6.39088,    93.04,          0,     0.00, 1.39588E-9,    28.91,    6.39393,   152.99,    6.39393,    32.99,    6.39393,   -87.01,          0,     0.00, 1.39644E-9,  -151.36
Line.L30,    6.39393,   -27.01,    6.39393,  -147.01,    6.39393,    92.99,          0,     0.00, 1.38695E-9,    30.94,    6.39502,   152.97,    6.39502,    32.97,    6.39502,   -87.03,          0,     0.00, 1.37667E-9,  -149.33
Line.L31,    4.80808,   -26.69,    4.80808,  -146.69,    4.80808,    93.31,          0,     0.00, 9.91354E-10,    42.47,    4.80858,   153.30,    4.80858,    33.30,    4.80858,   -86.70,          0,     0.00, 1.01418E-9,  -132.96
Line.L32,    10.5222,   152.97,    10.5222,    32.97,    10.5222,   -87.03,          0,     0.00, 2.01198E-9,  -148.74,    10.5205,   -27.01,    10.5205,  -147.01,    10.5205,    92.99,          0,     0.00, 2.00654E-9,    31.36
Line.L33,    12.8638,   152.96,    12.8638,    32.96,    12.8638,   -87.04,          0,     0.00, 2.49077E-9,  -147.78,    12.8621,   -27.03,    12.8621,  -147.03,    12.8621,    92.97,          0,     0.00,  2.4796E-9,    32.28
Line.L34,    10.4533,   -26.91,    10.4533,  -146.91,    10.4533,    93.09,          0,     0.00, 1.82335E-9,    24.52,    10.4533,   153.09,    10.4533,    33.09,    10.4533,   -86.91,          0,     0.00, 1.83262E-9,  -159.55
Line.L35,    9.85899,   -26.96,    9.85899,  -146.96,    9.85899,    93.04,          0,     0.00, 1.81418E-9,    33.47,    9.86042,   153.02,    9.86042,    33.02,    9.86042,   -86.98,          0,     0.00, 1.82704E-9,  -146.39
Line.L36,    6.46392,   -26.97,    6.46392,  -146.97,    6.46392,    93.03,          0,     0.00, 1.10413E-9,    36.85,    6.46706,   152.97,    6.46706,    32.97,    6.46706,   -87.03,          0,     0.00, 1.12814E-9,  -143.26
Transformer.T1,    0.85277,   -26.60,    0.85277,  -146.60,    0.85277,    93.40, 1.66557E-10,  -146.61, 3.17764E-14,   -63.43,    22.6034,   153.41,    22.6034,    33.41,    22.6034,   -86.59, 4.41492E-9,    33.37, 1.36424E-12,   -90.00
Transformer.T2,      2.193,   -27.14,      2.193,  -147.14,      2.193,    92.86, 4.28387E-10,  -147.16, 7.10543E-15,   -90.00,    58.1276,   152.86,    58.1276,    32.86,    58.1276,   -87.14, 1.13548E-8,    32.84,          0,     0.00
Transformer.T3, 0.0000103705,   -90.63, 0.0000103705,   149.37, 0.0000103705,    29.37, 2.84217E-14,   180.00, 1.42109E-14,     0.00, 9.09495E-13,    90.00, 1.36424E-12,   -90.00, 1.81899E-12,   180.00, 1.28622E-12,    45.00, 1.01685E-12,   153.43
Transformer.T4,   0.373182,   -26.58,   0.373182,  -146.58,   0.373182,    93.42, 7.28831E-11,  -146.62, 7.10543E-15,   -90.00,    9.89152,   153.42,    9.89152,    33.42,    9.89152,   -86.58, 1.93206E-9,    33.39, 2.27374E-13,     0.00
Transformer.T5,    5.33421,   -26.60,    5.33421,  -146.60,    5.33421,    93.40, 1.04196E-9,  -146.64, 3.41061E-13,   -90.00,    141.388,   153.40,    141.388,    33.40,    141.388,   -86.60, 2.76136E-8,    33.37, 7.27596E-12,   180.00
Transformer.T6,   0.426733,   -26.60,   0.426733,  -146.60,   0.426733,    93.40, 8.33458E-11,  -146.63, 1.42109E-14,    90.00,    11.3109,   153.40,    11.3109,    33.40,    11.3109,   -86.60, 2.20986E-9,    33.36, 2.27374E-13,     0.00
Transformer.T7,     1.4439,   -26.69,     1.4439,  -146.69,     1.4439,    93.31, 2.82072E-10,  -146.71, 4.49387E-14,  -108.43,     38.272,   153.31,     38.272,    33.31,     38.272,   -86.69, 7.47595E-9,    33.28, 6.4311E-13,   135.00
Transformer.T8,    1.45314,   -26.92,    1.45314,  -146.92,    1.45314,    93.08, 2.83858E-10,  -146.94, 1.58882E-14,  -153.43,     38.517,   153.08,     38.517,    33.08,     38.517,   -86.92, 7.52401E-9,    33.06, 5.08423E-13,    63.43
Transformer.T9,    3.96337,   -27.70,    3.96337,  -147.70,    3.96337,    92.30, 7.74475E-10,  -147.71, 1.58882E-14,    63.43,    105.053,   152.30,    105.053,    32.30,    105.053,   -87.70, 2.05283E-8,    32.29, 6.82121E-13,   -90.00
Transformer.T10,    2.34323,   -27.20,    2.34323,  -147.20,    2.34323,    92.80, 4.57807E-10,  -147.21, 1.00486E-14,    45.00,    62.1096,   152.80,    62.1096,    32.80,    62.1096,   -87.20, 1.21345E-8,    32.78, 6.4311E-13,   -45.00
Transformer.T11,    4.26767,   -26.60,    4.26767,  -146.60,    4.26767,    93.40, 8.33646E-10,  -146.62,          0,     0.00,    113.118,   153.40,    113.118,    33.40,    113.118,   -86.60, 2.20988E-8,    33.38, 1.81899E-12,     0.00
Transformer.T12,    1.94633,   -27.07,    1.94633,  -147.07,    1.94633,    92.93, 3.80249E-10,  -147.10, 1.00486E-14,  -135.00,    51.5894,   152.93,    51.5894,    32.93,    51.5894,   -87.07, 1.00788E-8,    32.90, 6.82121E-13,   -90.00
Transformer.T13,    10.7772,   -27.30,    10.7772,  -147.30,    10.7772,    92.70, 2.10561E-9,  -147.33, 5.68434E-14,   -90.00,    285.661,   152.70,    285.661,    32.70,    285.661,   -87.30, 5.58097E-8,    32.67, 2.03369E-12,  -153.43
Transformer.T14,    3.11428,   -27.07,    3.11428,  -147.07,    3.11428,    92.93, 6.08437E-10,  -147.10, 4.26326E-14,   180.00,    82.5471,   152.93,    82.5471,    32.93,    82.5471,   -87.07,  1.6127E-8,    32.91, 2.27374E-13,    90.00
Transformer.T15,    1.49295,   -26.59,    1.49295,  -146.59,    1.49295,    93.41, 2.91659E-10,  -146.62, 6.35529E-14,  -153.43,     39.572,   153.41,     39.572,    33.41,     39.572,   -86.59, 7.72976E-9,    33.38, 9.09495E-13,    90.00
Transformer.T16,   0.682807,   -26.60,   0.682807,  -146.60,   0.682807,    93.40, 1.33343E-10,  -146.64, 4.49387E-14,    71.57,    18.0984,   153.40,    18.0984,    33.40,    18.0984,   -86.60, 3.53399E-9,    33.36, 1.22444E-12,  -158.20
Transformer.T17,    1.20849,   -26.84,    1.20849,  -146.84,    1.20849,    93.16, 2.36062E-10,  -146.86, 1.58882E-14,    63.43,    32.0321,   153.16,    32.0321,    33.16,    32.0321,   -86.84, 6.25775E-9,    33.14, 4.54747E-13,    90.00
Transformer.T18,   0.426771,   -26.60,   0.426771,  -146.60,   0.426771,    93.40, 8.33476E-11,  -146.62, 2.5619E-14,    33.69,    11.3119,   153.40,    11.3119,    33.40,    11.3119,   -86.60, 2.21017E-9,    33.38,          0,     0.00
Transformer.T19,     3.3965,   -26.99,     3.3965,  -146.99,     3.3965,    93.01, 6.63513E-10,  -147.00, 2.00972E-14,  -135.00,    90.0276,   153.01,    90.0276,    33.01,    90.0276,   -86.99, 1.75887E-8,    33.00, 1.81899E-12,    90.00
Transformer.T20,   0.596716,   -26.58,   0.596716,  -146.58,   0.596716,    93.42, 1.16521E-10,  -146.60, 2.00972E-14,    45.00,    15.8165,   153.42,    15.8165,    33.42,    15.8165,   -86.58, 3.08832E-9,    33.40, 3.21555E-13,   135.00
Transformer.T21,    3.88846,   -27.06,    3.88846,  -147.06,    3.88846,    92.94, 7.59558E-10,  -147.08, 2.00972E-14,   135.00,    103.067,   152.94,    103.067,    32.94,    103.067,   -87.06, 2.01323E-8,    32.92, 4.54747E-13,    90.00
Transformer.T22,    2.13148,   -26.59,    2.13148,  -146.59,    2.13148,    93.41, 4.16255E-10,  -146.60, 5.68434E-14,   -90.00,    56.4968,   153.41,    56.4968,    33.41,    56.4968,   -86.59, 1.10317E-8,    33.39,          0,     0.00
Transformer.T23,    2.71869,   -27.00,    2.71869,  -147.00,    2.71869,    93.00, 5.31122E-10,  -147.02, 4.01944E-14,  -135.00,    72.0615,   153.00,    72.0615,    33.00,    72.0615,   -87.00, 1.40763E-8,    32.98, 7.19019E-13,  -161.57
Line.F01,    110.308,   -26.95,    110.308,  -146.95,    110.308,    93.05,          0,     0.00, 2.28627E-8,    35.87,     110.31,   153.05,     110.31,    33.05,     110.31,   -86.95,          0,     0.00, 2.28573E-8,  -144.14
Line.F02,    107.403,   -26.95,    107.403,  -146.95,    107.403,    93.05,          0,     0.00, 2.23374E-8,    35.92,    107.404,   153.04,    107.404,    33.04,    107.404,   -86.96,          0,     0.00, 2.23237E-8,  -143.99
Line.F03,    103.507,   -26.95,    103.507,  -146.95,    103.507,    93.05,          0,     0.00, 2.15823E-8,    36.13,    103.508,   153.05,    103.508,    33.05,    103.508,   -86.95,          0,     0.00, 2.15641E-8,  -144.00
Line.F04,    99.6079,   -26.95,    99.6079,  -146.95,    99.6079,    93.05,          0,     0.00, 2.07907E-8,    36.11,     99.609,   153.05,     99.609,    33.05,     99.609,   -86.95,          0,     0.00, 2.08228E-8,  -143.90
Line.F05,    95.7063,   -26.94,    95.7063,  -146.94,    95.7063,    93.06,          0,     0.00, 2.02016E-8,    35.80,    95.7064,   153.06,    95.7064,    33.06,    95.7064,   -86.94,          0,     0.00, 2.04195E-8,  -142.82
Line.F06,    95.7064,   -26.94,    95.7064,  -146.94,    95.7064,    93.06,          0,     0.00, 1.95987E-8,    36.60,    95.7068,   153.06,    95.7068,    33.06,    95.7068,   -86.94,          0,     0.00, 1.96018E-8,  -143.46
Line.F07,    92.7917,   -26.94,    92.7917,  -146.94,    92.7917,    93.06,          0,     0.00, 1.90822E-8,    36.58,    92.7922,   153.06,    92.7922,    33.06,    92.7922,   -86.94,          0,     0.00, 1.91504E-8,  -143.33
Line.F08,     88.887,   -26.94,     88.887,  -146.94,     88.887,    93.06,          0,     0.00, 1.85931E-8,    37.62,     88.887,   153.06,     88.887,    33.06,     88.887,   -86.94,          0,     0.00, 1.80902E-8,  -141.14
Line.F09,     88.887,   -26.94,     88.887,  -146.94,     88.887,    93.06,          0,     0.00, 1.80153E-8,    36.77,    88.8874,   153.06,    88.8874,    33.06,    88.8874,   -86.94,          0,     0.00, 1.81176E-8,  -143.53
Line.F10,    88.0309,   -26.94,    88.0309,  -146.94,    88.0309,    93.06,          0,     0.00, 1.79106E-8,    37.07,    88.0312,   153.06,    88.0312,    33.06,    88.0312,   -86.94,          0,     0.00, 1.77943E-8,  -142.88
Line.F11,    85.1139,   -26.94,    85.1139,  -146.94,    85.1139,    93.06,          0,     0.00, 1.73139E-8,    36.82,    85.1142,   153.06,    85.1142,    33.06,    85.1142,   -86.94,          0,     0.00, 1.72819E-8,  -142.98
Line.F12,    81.7026,   -26.94,    81.7026,  -146.94,    81.7026,    93.06,          0,     0.00, 1.73693E-8,    37.10,    81.7026,   153.06,    81.7026,    33.06,    81.7026,   -86.94,          0,     0.00, 1.72179E-8,  -143.25
Line.F13,    79.3699,   -26.94,    79.3699,  -146.94,    79.3699,    93.06,          0,     0.00, 1.66527E-8,    34.64,    79.3706,   153.06,    79.3706,    33.06,    79.3706,   -86.94,          0,     0.00, 1.66435E-8,  -145.18
Line.F14,    2.33275,   -26.86,    2.33275,  -146.86,    2.33275,    93.14,          0,     0.00, 4.71792E-10,    34.79,    2.33452,   153.05,    2.33452,    33.05,    2.33452,   -86.95,          0,     0.00, 4.46251E-10,  -146.89
Line.F15,    75.9575,   -26.94,    75.9575,  -146.94,    75.9575,    93.06,          0,     0.00, 1.67754E-8,    36.89,    75.9576,   153.06,    75.9576,    33.06,    75.9576,   -86.94,          0,     0.00, 1.66424E-8,  -144.75
Line.F16,    37.9788,   -26.94,    37.9788,  -146.94,    37.9788,    93.06,          0,     0.00, 8.26263E-9,    36.66,    37.9793,   153.06,    37.9793,    33.06,    37.9793,   -86.94,          0,     0.00, 8.29263E-9,  -143.99
Line.F17,    37.9788,   -26.94,    37.9788,  -146.94,    37.9788,    93.06,          0,     0.00, 8.26263E-9,    36.66,    37.9793,   153.06,    37.9793,    33.06,    37.9793,   -86.94,          0,     0.00, 8.29263E-9,  -143.99
Line.F18,    73.0259,   -26.93,    73.0259,  -146.93,    73.0259,    93.07,          0,     0.00, 1.58192E-8,    37.58,    73.0265,   153.07,    73.0265,    33.07,    73.0265,   -86.93,          0,     0.00, 1.58691E-8,  -142.79
Line.F19,     70.106,   -26.93,     70.106,  -146.93,     70.106,    93.07,          0,     0.00, 1.51899E-8,    38.34,    70.1066,   153.07,    70.1066,    33.07,    70.1066,   -86.93,          0,     0.00,   1.523E-8,  -142.02
Line.F20,    70.1066,   -26.93,    70.1066,  -146.93,    70.1066,    93.07,          0,     0.00, 1.49938E-8,    37.90,    70.1071,   153.07,    70.1071,    33.07,    70.1071,   -86.93,          0,     0.00, 1.50372E-8,  -142.15
Line.F21,     66.913,   -26.94,     66.913,  -146.94,     66.913,    93.06,          0,     0.00, 1.40439E-8,    40.05,    66.9133,   153.06,    66.9133,    33.06,    66.9133,   -86.94,          0,     0.00, 1.40671E-8,  -139.95
Line.F22,    3.19408,   -26.82,    3.19408,  -146.82,    3.19408,    93.18,          0,     0.00, 7.00913E-10,    -4.76,    3.19415,   153.18,    3.19415,    33.18,    3.19415,   -86.82,          0,     0.00, 6.05611E-10,  -144.78
Line.F23,    2.33624,   -26.89,    2.33624,  -146.89,    2.33624,    93.11,          0,     0.00, 4.88713E-10,    40.93,    2.33695,   153.07,    2.33695,    33.07,    2.33695,   -86.93,          0,     0.00, 5.1675E-10,  -141.72
Line.F24, 0.00159969,    89.34, 0.00159969,   -30.66, 0.00159969,  -150.66,          0,     0.00, 4.24258E-11,   -59.04, 1.02898E-11,    45.00, 1.62695E-11,   -63.43, 2.99995E-11,    75.96,          0,     0.00, 3.08693E-11,    45.00
Line.F25,    66.9133,   -26.94,    66.9133,  -146.94,    66.9133,    93.06,          0,     0.00,   1.373E-8,    43.71,    66.9134,   153.06,    66.9134,    33.06,    66.9134,   -86.94,          0,     0.00, 1.41399E-8,  -135.92
Line.F26,   0.321332,   -26.55,   0.321332,  -146.55,   0.321332,    93.45,          0,     0.00, 2.91038E-10,    53.13,   0.321402,   153.42,   0.321402,    33.42,   0.321402,   -86.58,          0,     0.00, 4.08492E-10,    85.91
Line.F27, 0.00015994,    89.34, 0.00015994,   -30.66, 0.00015994,  -150.66,          0,     0.00, 1.56729E-10,  -158.20, 5.82077E-11,    90.00, 4.93908E-10,    45.00, 2.32831E-10,    90.00,          0,     0.00, 7.2934E-10,    61.39
Line.F28,    40.6854,   -26.95,    40.6854,  -146.95,    40.6854,    93.05,          0,     0.00, 8.10258E-9,    37.12,    40.6854,   153.05,    40.6854,    33.05,    40.6854,   -86.95,          0,     0.00, 7.81567E-9,  -145.01
Line.F29,    25.9067,   -26.92,    25.9067,  -146.92,    25.9067,    93.08,          0,     0.00, 5.17899E-9,    39.21,    25.9071,   153.07,    25.9071,    33.07,    25.9071,   -86.93,          0,     0.00, 5.19744E-9,  -140.54
Line.F30,    25.9071,   -26.93,    25.9071,  -146.93,    25.9071,    93.07,          0,     0.00, 5.18151E-9,    39.82,    25.9075,   153.07,    25.9075,    33.07,    25.9075,   -86.93,          0,     0.00, 5.19102E-9,  -140.69
Line.F31,    24.8362,   -26.94,    24.8362,  -146.94,    24.8362,    93.06,          0,     0.00, 5.12816E-9,    40.74,    24.8366,   153.06,    24.8366,    33.06,    24.8366,   -86.94,          0,     0.00, 5.11405E-9,  -141.03
Line.F32,    24.3009,   -26.95,    24.3009,  -146.95,    24.3009,    93.05,          0,     0.00,  4.6971E-9,    39.66,    24.3011,   153.05,    24.3011,    33.05,    24.3011,   -86.95,          0,     0.00, 4.55329E-9,  -141.68
Line.F33,    22.6138,   -26.98,    22.6138,  -146.98,    22.6138,    93.02,          0,     0.00, 4.44129E-9,    36.61,    22.6139,   153.02,    22.6139,    33.02,    22.6139,   -86.98,          0,     0.00, 4.20842E-9,  -143.01
Line.F34,    18.6989,   -26.95,    18.6989,  -146.95,    18.6989,    93.05,          0,     0.00, 3.50722E-9,    40.96,     18.699,   153.05,     18.699,    33.05,     18.699,   -86.95,          0,     0.00, 3.49246E-9,  -143.13
Line.F35,     14.784,   -26.91,     14.784,  -146.91,     14.784,    93.09,          0,     0.00, 2.78098E-9,    37.37,    14.7852,   153.08,    14.7852,    33.08,    14.7852,   -86.92,          0,     0.00, 2.77144E-9,  -142.86
Line.F36,    13.9268,   -26.94,    13.9268,  -146.94,    13.9268,    93.06,          0,     0.00, 2.60776E-9,    38.27,     13.928,   153.05,     13.928,    33.05,     13.928,   -86.95,          0,     0.00, 2.60444E-9,  -141.47
Line.F37,     13.928,   -26.95,     13.928,  -146.95,     13.928,    93.05,          0,     0.00, 2.62081E-9,    36.75,    13.9293,   153.04,    13.9293,    33.04,    13.9293,   -86.96,          0,     0.00, 2.63026E-9,  -143.01
Line.F38,    35.5988,   -26.95,    35.5988,  -146.95,    35.5988,    93.05,          0,     0.00, 7.00094E-9,    36.99,    35.5995,   153.04,    35.5995,    33.04,    35.5995,   -86.96,          0,     0.00,  7.0156E-9,  -142.80
Line.F39,    35.5995,   -26.96,    35.5995,  -146.96,    35.5995,    93.04,          0,     0.00, 7.14223E-9,    37.24,    35.5999,   153.04,    35.5999,    33.04,    35.5999,   -86.96,          0,     0.00, 7.13627E-9,  -143.02
Line.F40,    34.9128,   -26.96,    34.9128,  -146.96,    34.9128,    93.04,          0,     0.00, 6.99685E-9,    36.35,    34.9135,   153.03,    34.9135,    33.03,    34.9135,   -86.97,          0,     0.00,  6.9602E-9,  -143.28
Line.F41,     29.062,   -26.96,     29.062,  -146.96,     29.062,    93.04,          0,     0.00, 5.89067E-9,    36.63,    29.0627,   153.03,    29.0627,    33.03,    29.0627,   -86.97,          0,     0.00, 5.85581E-9,  -142.76
Line.F42,    25.1437,   -26.94,    25.1437,  -146.94,    25.1437,    93.06,          0,     0.00, 5.04417E-9,    38.97,    25.1442,   153.06,    25.1442,    33.06,    25.1442,   -86.94,          0,     0.00, 5.15179E-9,  -142.40
Line.F43,    23.8566,   -26.96,    23.8566,  -146.96,    23.8566,    93.04,          0,     0.00,  4.7805E-9,    37.39,    23.8573,   153.03,    23.8573,    33.03,    23.8573,   -86.97,          0,     0.00, 4.78176E-9,  -143.16
Line.F44,    18.0037,   -26.96,    18.0037,  -146.96,    18.0037,    93.04,          0,     0.00, 3.67228E-9,    28.39,    18.0038,   153.04,    18.0038,    33.04,    18.0038,   -86.96,          0,     0.00,  4.3742E-9,  -152.24
Line.F45,    8.78431,   -26.95,    8.78431,  -146.95,    8.78431,    93.05,          0,     0.00, 1.87291E-9,    34.55,    8.78488,   153.04,    8.78488,    33.04,    8.78488,   -86.96,          0,     0.00, 1.85157E-9,  -145.81
Line.F46,    3.91736,   -27.04,    3.91736,  -147.04,    3.91736,    92.96,          0,     0.00, 7.55545E-10,    32.96,    3.91878,   152.91,    3.91878,    32.91,    3.91878,   -87.09,          0,     0.00, 7.38608E-10,  -145.84
Line.F47,    3.91878,   -27.09,    3.91878,  -147.09,    3.91878,    92.91,          0,     0.00, 7.84422E-10,    36.09,     3.9202,   152.87,     3.9202,    32.87,     3.9202,   -87.13,          0,     0.00, 7.93368E-10,  -146.93
Line.F48,    36.7714,   -26.93,    36.7714,  -146.93,    36.7714,    93.07,          0,     0.00, 7.01488E-9,    39.87,    36.7721,   153.06,    36.7721,    33.06,    36.7721,   -86.94,          0,     0.00, 7.04397E-9,  -140.64
Line.F49,    7.32943,   -27.03,    7.32943,  -147.03,    7.32943,    92.97,          0,     0.00, 1.47681E-9,    34.51,    7.33006,   152.96,    7.33006,    32.96,    7.33006,   -87.04,          0,     0.00, 1.52029E-9,  -145.28
Line.F50,    3.91216,   -27.03,    3.91216,  -147.03,    3.91216,    92.97,          0,     0.00, 7.91124E-10,    30.69,    3.91323,   152.94,    3.91323,    32.94,    3.91323,   -87.06,          0,     0.00, 8.06754E-10,  -148.46
Line.F51,  0.0039975,    89.33,  0.0039975,   -30.67,  0.0039975,  -150.67,          0,     0.00, 1.09139E-11,     0.00, 1.55415E-11,    69.44, 1.74708E-11,  -141.34, 1.81899E-11,   126.87,          0,     0.00, 2.63753E-11,   136.40
Line.F52,    29.4426,   -26.91,    29.4426,  -146.91,    29.4426,    93.09,          0,     0.00, 5.48745E-9,    39.13,    29.4434,   153.08,    29.4434,    33.08,    29.4434,   -86.92,          0,     0.00, 5.46456E-9,  -141.16
Line.F53,    28.5851,   -26.92,    28.5851,  -146.92,    28.5851,    93.08,          0,     0.00,    5.34E-9,    39.42,    28.5855,   153.07,    28.5855,    33.07,    28.5855,   -86.93,          0,     0.00,  5.2856E-9,  -141.12
Line.F54,    3.00113,   -26.54,    3.00113,  -146.54,    3.00113,    93.46,          0,     0.00, 4.72633E-10,   116.76,    3.00183,   153.43,    3.00183,    33.43,    3.00183,   -86.57,          0,     0.00, 4.94554E-10,   -60.23
Line.F55,    1.50018,   -26.51,    1.50018,  -146.51,    1.50018,    93.49,          0,     0.00, 8.23181E-11,   135.00,    1.50025,   153.48,    1.50025,    33.48,    1.50025,   -86.52,          0,     0.00, 2.39996E-10,   -14.04
Line.F56, 0.00319733,    89.33, 0.00319733,   -30.67, 0.00319733,  -150.67,          0,     0.00, 5.47211E-11,  -164.58, 1.46652E-11,   -82.87, 2.9118E-11,   -14.47, 7.27596E-12,   180.00,          0,     0.00, 3.15189E-11,   -43.83
Line.F57,    25.5845,   -26.97,    25.5845,  -146.97,    25.5845,    93.03,          0,     0.00, 5.11357E-9,    36.70,    25.5849,   153.03,    25.5849,    33.03,    25.5849,   -86.97,          0,     0.00, 5.09909E-9,  -142.77
Line.F58,    21.6688,   -26.95,    21.6688,  -146.95,    21.6688,    93.05,          0,     0.00, 4.40219E-9,    36.28,    21.6695,   153.05,    21.6695,    33.05,    21.6695,   -86.95,          0,     0.00,  4.3947E-9,  -143.30
Transformer.T24,    2.90771,   -26.92,    2.90771,  -146.92,    2.90771,    93.08, 5.68086E-10,  -146.94, 4.49387E-14,   161.57,    77.0718,   153.08,    77.0718,    33.08,    77.0718,   -86.92, 1.50553E-8,    33.06, 1.36424E-12,   180.00
Transformer.T25,    3.89964,   -27.09,    3.89964,  -147.09,    3.89964,    92.91, 7.62031E-10,  -147.10, 4.01944E-14,   -45.00,    103.364,   152.91,    103.364,    32.91,    103.364,   -87.09, 2.01971E-8,    32.90, 1.43804E-12,   -71.57
Transformer.T26,    3.90272,   -27.09,    3.90272,  -147.09,    3.90272,    92.91, 7.62699E-10,  -147.10, 2.00972E-14,   135.00,    103.445,   152.91,    103.445,    32.91,    103.445,   -87.09, 2.02157E-8,    32.90, 4.54747E-13,    90.00
...